  492
Geometry Step: 500
    N     59.95279998     75.79765335     61.87620990      5.49353235
    H     59.99312575     74.90699584     61.39444293      0.83967028
    H     58.99275629     76.11483466     61.82215607      0.84965605
    C     62.11671405     78.96478761     61.20815628      4.16707777
    H     61.98798238     79.98175269     61.54811081      0.99914425
    C     61.55602717     78.66272726     60.02568411      3.80103188
    O     60.90106011     79.52614872     59.28047381      6.67610646
    H     60.50063852     76.44938682     61.32378042      0.82404792
    C     62.85614107     78.03455090     62.12168978      4.06183628
    H     62.21132731     77.73329254     62.95354718      0.95250656
    H     63.13112131     77.12091796     61.59189320      0.97834580
    C     64.11770887     78.70409376     62.67565936      4.08385111
    H     64.75203599     78.98965568     61.83423792      0.94674127
    H     63.82640019     79.60772427     63.21263552      0.92861475
    C     64.87608789     77.76709648     63.61128643      4.02815966
    H     65.17029208     76.86737086     63.05897388      0.92832884
    H     64.21419507     77.48153054     64.43485980      0.91174184
    N     66.05879713     78.44181597     64.12894688      5.16951798
    H     66.19038631     79.39667348     63.82786233      0.74428222
    C     66.97485494     77.87900362     64.91127142      3.75666705
    N     68.03505521     78.59174660     65.29115807      5.30334456
    H     68.16651999     79.54020845     64.98538429      0.73000915
    H     68.71652163     78.18830349     65.91115773      0.72688283
    N     66.83583836     76.62299726     65.32427319      5.32457467
    H     67.54065372     76.19377482     65.89941250      0.72628503
    H     66.04710938     76.07125007     65.03471673      0.69801986
    N     61.58211779     77.33189035     59.50259825      5.32548270
    C     61.42244265     77.27518950     58.06266721      3.93771819
    H     62.24880874     77.77631532     57.52366155      0.99783754
    C     60.15456999     78.01695694     57.64047882      3.68077617
    O     60.08856349     78.65660342     56.59554116      6.56201500
    H     62.42156694     76.83713265     59.77712103      0.79720142
    C     61.36024589     75.80533815     57.60316003      4.07676340
    H     60.44801344     75.34939836     57.98920170      0.95421486
    H     62.22381761     75.28232023     58.02134744      0.93316149
    C     61.39566771     75.70764085     56.11658050      4.03361773
    C     62.50646005     75.70515643     55.32346589      4.01307139
    H     63.54068874     75.73990571     55.60221103      0.94533227
    N     62.14983307     75.64539023     54.00493767      5.13218318
    H     62.78317899     75.62876834     53.22632464      0.78643118
    C     60.78948576     75.62361200     53.91892109      3.95417599
    C     59.95509685     75.57492171     52.80938521      4.06192794
    H     60.35401545     75.54629744     51.80614478      0.96647276
    C     58.59556933     75.57077712     53.03509023      4.04467709
    H     57.91385037     75.53576677     52.19693970      0.97613040
    C     58.07344392     75.62074949     54.33141625      4.04748231
    H     57.00053834     75.62618806     54.46274316      0.98911825
    C     58.89373957     75.66287908     55.43515817      4.03830756
    H     58.48177644     75.71781548     56.43220664      0.98954722
    C     60.27261351     75.66505965     55.23764633      4.01883786
    N     59.07259885     77.68744396     58.39213424      5.23871226
    C     57.76589002     78.27319391     58.22326370      3.95472439
    H     57.60745734     78.45212896     57.15411045      0.97144905
    C     57.53905177     79.61569158     58.93902714      3.71364038
    O     56.54961264     80.29954386     58.68118758      6.54767101
    H     59.29139488     77.36306553     59.32271721      0.76573608
    C     56.73553330     77.25787631     58.76719544      4.06572618
    H     56.96381333     77.08479816     59.82030142      0.94878168
    H     56.86731450     76.32284988     58.21920704      0.94551419
    C     55.32393561     77.71667396     58.64743717      4.02972258
    C     54.54732727     77.69979565     57.52580681      4.00544090
    H     54.79954360     77.37219106     56.53499475      0.97485501
    N     53.30148347     78.19291890     57.80190734      5.13473285
    H     52.55671688     78.30403776     57.13566453      0.79369000
    C     53.25523652     78.55697859     59.11677043      3.95287245
    C     52.22009561     79.10150910     59.86716334      4.06006380
    H     51.26113315     79.31471614     59.41855255      0.97093882
    C     52.46456213     79.36131949     61.19829327      4.04637080
    H     51.68254985     79.78591287     61.80897827      0.96205868
    C     53.70814481     79.08844520     61.77451751      4.05165386
    H     53.85690897     79.31195791     62.81931048      0.95561653
    C     54.73552810     78.54292284     61.03883537      4.04078218
    H     55.69699046     78.33967180     61.48745249      0.97738567
    C     54.51767615     78.26626330     59.69014671      4.01556262
    N     58.41044852     79.85426406     59.92929686      5.29618644
    C     58.27291261     81.01760355     60.78879249      3.95924655
    H     57.21553595     81.31344993     60.78465979      0.96918624
    C     59.06607691     82.24309842     60.30713609      3.71054497
    O     58.55343729     83.36746548     60.31819116      6.56860879
    H     59.41063110     79.60996307     59.68661506      0.70808129
    C     58.72610659     80.61413677     62.20091010      4.08446152
    H     59.78666873     80.36454420     62.15216598      0.93068255
    H     58.17307282     79.71449075     62.47414920      0.93038457
    C     58.47488217     81.71674149     63.22604052      4.07360847
    H     57.40409832     81.92535305     63.24638691      0.94512424
    H     58.98319966     82.62342292     62.89346555      0.95227541
    C     58.95353736     81.29909063     64.61506159      4.03026970
    H     60.04052352     81.17426769     64.60056161      0.90105411
    H     58.47862923     80.34889885     64.87621907      0.90273275
    N     58.57630751     82.31672237     65.58362209      5.16587525
    H     58.18316200     83.16260858     65.20149237      0.76250841
    C     58.64492599     82.18167962     66.90608499      3.75677636
    N     58.18459293     83.15706232     67.68896307      5.29873528
    H     58.22947460     83.06526508     68.69066496      0.73726157
    H     57.73266653     83.96744792     67.30213499      0.72378820
    N     59.19213631     81.10237023     67.45225706      5.32184119
    H     59.53799145     80.35455829     66.87353297      0.71651218
    H     59.22397339     81.00134013     68.45388432      0.68437050
    N     60.35897727     81.99754596     60.06903857      5.27396921
    C     61.17556280     82.96373205     59.36242728      3.96605569
    H     61.28573160     83.86751019     59.97862817      0.98000733
    C     60.49577986     83.41756972     58.02526568      3.61663106
    O     60.91576836     84.49428777     57.55019004      6.64677204
    H     60.58717668     81.01472492     59.79192921      0.71157348
    C     62.53047787     82.31715111     59.06186110      4.06092821
    H     62.36711079     81.60758630     58.24571904      0.98771386
    H     62.83155050     81.74472746     59.94135192      0.92701396
    C     63.61817095     83.31820643     58.68490356      4.07717828
    H     63.80888464     83.96570060     59.54204442      0.92983628
    H     63.24837342     83.95140989     57.87618287      0.95779210
    C     64.89346405     82.57842332     58.24722806      4.02217438
    H     65.12075814     81.77847029     58.95680148      0.90593713
    H     64.71398935     82.11112234     57.27919762      0.93126509
    N     66.04246191     83.45122851     58.10600834      5.16739624
    H     66.18367245     83.85875230     57.19586239      0.76062975
    C     66.74642396     83.94609117     59.12671986      3.75697420
    N     67.74513391     84.79210798     58.88198971      5.29923380
    H     68.00772692     85.03305896     57.94185855      0.73821307
    H     68.33080014     85.11681603     59.63399629      0.70888690
    N     66.50918516     83.55311610     60.37317209      5.32491600
    H     65.66820952     83.03820364     60.57506127      0.71804805
    H     67.05397579     83.93623044     61.12917681      0.67495806
    O     59.63281846     82.66304013     57.52721755      6.68961697
    N     79.00988228     56.80628291     61.93552698      5.48455494
    H     79.25672834     56.00551198     61.36527371      0.84065075
    H     78.43047247     57.41106857     61.36096568      0.86097335
    C     81.82562524     58.52908145     61.63019440      4.16886543
    H     81.55344154     59.47888159     62.07480732      1.01595121
    C     81.39915258     58.34693795     60.36113573      3.78920892
    O     80.63609702     59.20084435     59.73262972      6.65237760
    H     79.87769202     57.31997415     62.08382948      0.82712768
    C     82.93502100     57.79961153     62.32852419      4.05548807
    H     82.71007763     57.71247170     63.39365377      0.95519270
    H     83.06593729     56.79497338     61.92726656      0.97594932
    C     84.22274562     58.61561418     62.14690528      4.05792044
    H     84.48827354     58.60605930     61.08699669      0.98452305
    H     84.00674923     59.65336572     62.41612752      0.97282610
    C     85.42354051     58.15625907     62.96665450      3.99496829
    H     85.66494073     57.11297707     62.71457777      0.96078730
    H     85.17435555     58.21579492     64.03229081      0.93667736
    N     86.53326772     59.03533061     62.67307827      5.22567669
    H     86.47070255     59.60385639     61.84445021      0.82237112
    C     87.69333333     59.17932734     63.36929176      3.75055918
    N     88.50606259     60.09560869     62.99137866      5.53772331
    H     87.33425602     61.48379567     61.31467123      0.95054690
    H     89.34470172     60.11765372     63.55857021      0.85626563
    N     87.86863431     58.36366913     64.46266374      5.40571668
    H     88.78491995     58.34704292     64.87325891      0.78214160
    H     87.30185811     57.54415904     64.56525230      0.75266904
    N     81.60150062     57.13214770     59.64897267      5.31063487
    C     81.47690247     57.27713890     58.21019353      3.93346477
    H     82.30889188     57.86946674     57.77929290      1.01695065
    C     80.21370527     58.05237272     57.81844546      3.67677436
    O     80.23191683     58.85763679     56.89024441      6.56961608
    H     82.47579509     56.68677615     59.89310507      0.80624015
    C     81.45699706     55.88974825     57.54186486      4.07547563
    H     80.59780904     55.33251064     57.91583960      0.94355851
    H     82.37259915     55.36307873     57.82401938      0.94255961
    C     81.38263657     56.01861808     56.05742247      4.03436456
    C     82.40350173     56.34652907     55.21290674      4.00783856
    H     83.43312195     56.54475830     55.43969643      0.96764720
    N     81.95519525     56.40425187     53.92187867      5.13532465
    H     82.50558436     56.66447762     53.12335934      0.79115282
    C     80.61684742     56.14243508     53.91082081      3.95340026
    C     79.71552829     56.09093237     52.85526131      4.06124441
    H     80.03122032     56.28627737     51.84196440      0.96708011
    C     78.40362273     55.78882309     53.14944138      4.04586258
    H     77.67516322     55.74538998     52.35382448      0.96551427
    C     77.99199402     55.54537412     54.46297581      4.04931566
    H     76.95264741     55.32160441     54.65262460      0.97086378
    C     78.88128881     55.58559228     55.51276339      4.04198416
    H     78.55831333     55.40551067     56.52757107      0.97732266
    C     80.21507940     55.88975850     55.24571170      4.01939907
    N     79.05430984     57.56410894     58.34356065      5.24378506
    C     77.77129952     58.17658900     58.06985957      3.95593132
    H     77.68556343     58.29910078     56.98344883      0.96459922
    C     77.52318647     59.57774262     58.66377900      3.71100860
    O     76.69778533     60.32880054     58.14869977      6.54258581
    H     79.14933118     57.11621730     59.24366405      0.76880242
    C     76.67443203     57.22255819     58.59066635      4.07129568
    H     76.85931891     57.03865207     59.65066880      0.94603645
    H     76.76781375     56.28008749     58.04768227      0.93579130
    C     75.29737847     57.77280128     58.43600909      4.03224673
    C     74.55204051     57.83060637     57.29462281      4.00479750
    H     74.81186002     57.51128766     56.30301106      0.97003531
    N     73.33301091     58.39569092     57.55199778      5.13222479
    H     72.63037496     58.59900177     56.86272825      0.79012127
    C     73.27819554     58.74302415     58.87098603      3.95281347
    C     72.26444701     59.34372130     59.60727180      4.06045279
    H     71.33574206     59.63479701     59.14113789      0.96571292
    C     72.49316342     59.56294149     60.94833237      4.04666886
    H     71.72786140     60.02789146     61.54991252      0.95742473
    C     73.70173952     59.19898945     61.54801182      4.05165316
    H     73.84392791     59.39651343     62.59846889      0.95482622
    C     74.70872814     58.59931931     60.82655588      4.04243864
    H     75.64442838     58.32537366     61.29184486      0.98011092
    C     74.50403260     58.35957040     59.46863476      4.01918363
    N     78.13870649     59.79368896     59.83507180      5.28582285
    C     78.00615951     61.02469628     60.59725939      3.96139728
    H     77.00549785     61.43288297     60.41347292      0.95714760
    C     79.00689404     62.13690264     60.21571109      3.71371123
    O     78.62226894     63.30149441     60.06746712      6.56650095
    H     79.10198011     59.39429579     59.88088328      0.71300599
    C     78.19576887     60.63518749     62.07164378      4.08329519
    H     79.19990136     60.21762579     62.16610992      0.94577187
    H     77.47464765     59.84789856     62.29099162      0.91851780
    C     78.01607737     61.78931081     63.05491724      4.07349545
    H     76.99297881     62.15895792     62.98183992      0.93187648
    H     78.68747683     62.60142863     62.76902032      0.96220178
    C     78.31094158     61.31394569     64.47754719      4.02726871
    H     79.35465110     60.98514475     64.52646812      0.92022725
    H     77.65440689     60.46842185     64.70147821      0.89730962
    N     78.07005863     62.38350645     65.43310944      5.16733301
    H     77.86096386     63.28748409     65.03970922      0.75818101
    C     78.16190961     62.25300096     66.75547767      3.75656151
    N     77.88540853     63.29561639     67.53734941      5.29778292
    H     77.97183121     63.21238020     68.53741009      0.73329285
    H     77.62615406     64.18591308     67.14748721      0.71784026
    N     78.49777277     61.09200671     67.30437343      5.32189701
    H     78.73605508     60.30180650     66.72914300      0.72413389
    H     78.56182590     61.00438082     68.30530737      0.68151614
    N     80.28064371     61.74450983     60.25144286      5.27685734
    C     81.40476634     62.54391824     59.79959208      3.96081454
    H     81.60104404     63.35218732     60.52184171      0.99382378
    C     81.15338619     63.23782612     58.42344554      3.61517331
    O     81.69133791     64.35649267     58.28111988      6.65120087
    H     80.44454861     60.72547725     60.09859385      0.70734475
    C     82.60829632     61.60387568     59.69696590      4.04667908
    H     82.41172759     60.92146814     58.86460500      0.99357126
    H     82.64112271     61.00961366     60.61301498      0.94668835
    C     83.96657976     62.26077302     59.48903627      4.05072995
    H     84.08736280     63.09253923     60.18616436      0.96919315
    H     84.02814000     62.67260977     58.47600717      0.99959000
    C     85.06696507     61.20066891     59.69663465      3.97673906
    H     85.00915260     60.84810535     60.72778493      0.95550101
    H     84.85268541     60.35739187     59.02531221      0.98120394
    N     86.43053366     61.60099146     59.45166230      5.31373883
    H     86.51867204     62.08564629     58.56680259      0.84053789
    C     87.18355269     62.23251284     60.52369752      3.80314835
    N     86.57321864     63.39179299     61.19273954      5.43821669
    H     86.27145661     64.10104102     60.53182922      0.85271859
    H     85.75323990     63.09621107     61.70174117      0.82093068
    N     88.47646712     62.55934265     59.98814572      5.44580564
    H     88.35463032     63.24288061     59.25220058      0.82026999
    H     89.02419098     62.98783726     60.71761700      0.76537007
    O     80.48949292     62.61407340     57.57032621      6.67621539
    N     39.16794942     56.61910783     62.01388549      5.48620164
    H     39.51063108     55.83752541     61.46553254      0.83967355
    H     38.51329226     57.12167132     61.42220336      0.86173514
    C     41.86599629     58.52073473     61.65061932      4.16870580
    H     41.58881166     59.46758432     62.10012071      1.01662009
    C     41.41486152     58.33788104     60.38941860      3.78915920
    O     40.63250601     59.18528719     59.77620247      6.65277159
    H     39.96717339     57.24206731     62.13170644      0.82635562
    C     42.99416673     57.80237046     62.33173955      4.05504939
    H     42.78243216     57.70650759     63.39873848      0.95492308
    H     43.12547193     56.79980324     61.92381056      0.97741976
    C     44.27508359     58.62935815     62.14229396      4.05834473
    H     44.53614266     58.62345909     61.08125561      0.98525999
    H     44.05204849     59.66565502     62.40706898      0.97138047
    C     45.47940252     58.17843758     62.95891461      3.99527077
    H     45.72416652     57.13650045     62.70841445      0.96312304
    H     45.24017323     58.24271800     64.02312557      0.93045928
    N     46.58658176     59.05981094     62.67295320      5.22208050
    H     46.58399646     59.55864714     61.79831926      0.82040398
    C     47.73908257     59.19535676     63.37924922      3.75159492
    N     48.59708926     60.04905655     62.96262829      5.53325657
    H     47.34521384     61.61827330     61.31311480      0.95626019
    H     49.43441963     60.08201371     63.53322629      0.85002402
    N     47.86364647     58.43558041     64.53465675      5.41576739
    H     48.81791400     58.34251216     64.84338697      0.78498221
    H     47.37556768     57.55753096     64.53820401      0.75757372
    N     41.61221562     57.12442789     59.67061813      5.31217641
    C     41.47430295     57.27121678     58.23187044      3.93343723
    H     42.30519944     57.86162714     57.79811102      1.01628004
    C     40.21464907     58.05902684     57.85090272      3.67687762
    O     40.23660019     58.87634740     56.93334740      6.56986106
    H     42.49148107     56.68248366     59.90371326      0.80693297
    C     41.44132642     55.88746275     57.55834793      4.07504667
    H     40.57520816     55.33825575     57.92646124      0.94535459
    H     42.34946527     55.35170177     57.84390969      0.94258966
    C     41.37913932     56.01852843     56.07413110      4.03447996
    C     42.41364575     56.32732046     55.23846293      4.00828039
    H     43.44402697     56.51203655     55.47606640      0.96667260
    N     41.97860162     56.38424974     53.94275865      5.13501576
    H     42.53937484     56.62910135     53.14650122      0.78991092
    C     40.63716294     56.14053465     53.92055718      3.95343537
    C     39.74790553     56.09461966     52.85464811      4.06146587
    H     40.07489407     56.28430179     51.84415848      0.96534074
    C     38.42856478     55.81193788     53.13436829      4.04585800
    H     37.70849613     55.76853959     52.33044948      0.96459936
    C     38.00031137     55.57639696     54.44415595      4.04917797
    H     36.95643710     55.36651292     54.62448091      0.97224604
    C     38.87683224     55.61732162     55.50425330      4.04168224
    H     38.53893664     55.44596022     56.51475038      0.97953921
    C     40.21809786     55.89986917     55.25224129      4.01966536
    N     39.05066676     57.56784124     58.36258370      5.24289298
    C     37.76616906     58.17957720     58.09250614      3.95583141
    H     37.67210692     58.29111381     57.00593980      0.96395700
    C     37.52326330     59.58594023     58.67578294      3.71069624
    O     36.70448982     60.33985925     58.15414443      6.54320235
    H     39.14055311     57.09557855     59.24963708      0.77074341
    C     36.67029045     57.23593347     58.63074742      4.06954058
    H     36.85360707     57.07454377     59.69482419      0.94972204
    H     36.76515848     56.28305629     58.10766150      0.93672739
    C     35.29178587     57.77817960     58.46114319      4.03260107
    C     34.54870928     57.81095790     57.31718381      4.00514048
    H     34.81236177     57.47044327     56.33327167      0.96835506
    N     33.32714578     58.37585803     57.56315825      5.13169043
    H     32.62077109     58.55548139     56.87157090      0.78834591
    C     33.26959395     58.75044252     58.87439905      3.95278960
    C     32.25254930     59.35952804     59.59845637      4.06049264
    H     31.32537383     59.64002850     59.12498390      0.96412572
    C     32.47712916     59.60200466     60.93561048      4.04654014
    H     31.70947626     60.07335597     61.52791530      0.95797290
    C     33.68599428     59.25468252     61.54295942      4.05146990
    H     33.82534266     59.47137347     62.58942846      0.95660731
    C     34.69697932     58.64700479     60.83461820      4.04201847
    H     35.63296433     58.38554768     61.30716632      0.98210475
    C     34.49492561     58.38150841     59.48121565      4.01936262
    N     38.13912052     59.80456355     59.84493776      5.28224412
    C     38.01104741     61.03475543     60.60757214      3.96140938
    H     37.01187576     61.44809236     60.42521462      0.95769371
    C     39.01642239     62.13979958     60.22526682      3.71316278
    O     38.64110037     63.30641461     60.07069365      6.56743343
    H     39.09434735     59.39082208     59.90387614      0.71357941
    C     38.20377469     60.64286334     62.08068944      4.08269255
    H     39.20319052     60.21205690     62.16878156      0.94521722
    H     37.47426149     59.86604685     62.30762415      0.92025067
    C     38.04748653     61.80119758     63.06202281      4.07321025
    H     37.02862084     62.18481936     63.00110403      0.93277163
    H     38.72720189     62.60224702     62.76560956      0.96192258
    C     38.35264837     61.32169336     64.48099078      4.02682250
    H     39.39422823     60.98373188     64.52014343      0.91983925
    H     37.69038184     60.48085695     64.71127405      0.89811871
    N     38.13713124     62.39227097     65.44165240      5.16742792
    H     37.93551469     63.30091944     65.05375845      0.75860891
    C     38.27012153     62.26325611     66.76089164      3.75627843
    N     38.04195617     63.31620871     67.54506453      5.29788049
    H     38.12947776     63.23313334     68.54440165      0.73319540
    H     37.74157695     64.19754528     67.16649826      0.71907495
    N     38.60835374     61.10079178     67.30560474      5.32154002
    H     38.82333405     60.30790466     66.72562467      0.72414196
    H     38.70112401     61.01471980     68.30458461      0.68034347
    N     40.28645657     61.74076928     60.26355431      5.27432383
    C     41.40991340     62.53800261     59.81561848      3.96054686
    H     41.60425325     63.35418977     60.53104534      0.99424753
    C     41.17813481     63.22238231     58.42839055      3.61529652
    O     41.72220759     64.33814360     58.28537799      6.65080292
    H     40.45097753     60.72128416     60.12229769      0.70772525
    C     42.61133600     61.59763051     59.71925388      4.04604244
    H     42.40577398     60.90101241     58.89866277      0.99446156
    H     42.65626285     61.02003977     60.64415058      0.94743855
    C     43.95567581     62.27529260     59.49614401      4.05043544
    H     44.05327354     63.11652335     60.18421781      0.96915030
    H     43.97964625     62.68866204     58.48310121      1.00026897
    C     45.08216544     61.24869784     59.71560579      3.97654345
    H     45.04451203     60.91931016     60.75483756      0.95401388
    H     44.86940368     60.38367669     59.07335638      0.98182270
    N     46.43164093     61.67567763     59.44847249      5.31362609
    H     46.48620886     62.20696188     58.58902441      0.83994244
    C     47.16628089     62.34744152     60.50318179      3.80025327
    N     46.53676714     63.51012758     61.12972238      5.43599392
    H     46.23664563     64.16868174     60.41924410      0.85133994
    H     45.74072020     63.24470317     61.69127877      0.82075731
    N     48.44481814     62.69281984     59.94590059      5.44512092
    H     48.35947784     63.38482377     59.20641909      0.82077278
    H     49.02227568     63.04901436     60.68968640      0.76500742
    O     40.51596476     62.59830372     57.57445197      6.67595287
    N     59.38999307     36.79726740     62.12334713      5.48068162
    H     59.64077578     35.94792009     61.63199745      0.83612689
    H     58.47444862     37.07390214     61.78688194      0.86073232
    C     61.98515981     38.99032593     61.24741024      4.16847032
    H     61.78025853     39.97942179     61.63881147      1.00425326
    C     61.48927671     38.73204619     60.02112828      3.79997677
    O     60.81186741     39.60708930     59.30699823      6.68165341
    H     60.04428425     37.51165444     61.81350830      0.83031362
    C     62.79367109     38.08258325     62.12882876      4.06352859
    H     62.24458968     37.89623004     63.05607953      0.95085230
    H     62.93945770     37.12288915     61.63438936      0.97391908
    C     64.14968917     38.71406680     62.46994773      4.08300041
    H     64.69926162     38.86645265     61.54044787      0.94923845
    H     63.97167217     39.68554078     62.93212620      0.93300542
    C     64.96396359     37.83851464     63.41762551      4.02772933
    H     65.17431534     36.88060984     62.93054390      0.92499999
    H     64.39080042     37.65955816     64.33359681      0.91280185
    N     66.20927695     38.51792258     63.74342531      5.17047895
    H     66.34380652     39.41735748     63.30798794      0.74613394
    C     67.12936146     38.08111400     64.59652120      3.75636733
    N     68.19769713     38.83774147     64.84440585      5.30313848
    H     68.33277971     39.72502400     64.39081601      0.72996362
    H     68.90491051     38.51754775     65.48362166      0.72658823
    N     66.99057995     36.90628263     65.20159489      5.32410105
    H     67.69735560     36.57663145     65.83626498      0.72595550
    H     66.20048263     36.31531689     65.01193903      0.69721052
    N     61.60087496     37.43441859     59.42655970      5.32230097
    C     61.45648003     37.42170325     57.98313062      3.93865400
    H     62.25338268     37.99796327     57.47556650      0.99939686
    C     60.14859783     38.09803580     57.57689899      3.68182597
    O     60.04509111     38.75844540     56.54775557      6.56201611
    H     62.45596719     36.96583812     59.69990436      0.79505886
    C     61.48089462     35.96593599     57.47454284      4.07759100
    H     60.61058711     35.44188224     57.86989289      0.95146529
    H     62.38288449     35.48889034     57.86181042      0.93075013
    C     61.48352710     35.89866494     55.98610565      4.03291880
    C     62.56998513     35.94872923     55.15997535      4.01287598
    H     63.61266931     36.02682130     55.39999987      0.94463743
    N     62.17796921     35.86045958     53.85135817      5.13327293
    H     62.78058087     35.90379635     53.04679576      0.78665923
    C     60.81736085     35.77026206     53.80813563      3.95464094
    C     59.95775205     35.66601131     52.72127743      4.06202535
    H     60.33918362     35.64357602     51.71076571      0.96666599
    C     58.60703881     35.58528594     52.98180958      4.04469772
    H     57.90724703     35.50715438     52.16243703      0.97499392
    C     58.12050394     35.60873145     54.29225679      4.04769060
    H     57.05434897     35.54242791     54.45424169      0.98722211
    C     58.96709612     35.70051947     55.37333723      4.03898685
    H     58.57945465     35.72821767     56.38049248      0.98889354
    C     60.33788954     35.79188962     55.14113446      4.01920185
    N     59.08854553     37.69974569     58.32394419      5.23658614
    C     57.75794686     38.22816902     58.14865007      3.95458037
    H     57.60011875     38.40240603     57.07840586      0.97027932
    C     57.47528385     39.56467005     58.85568681      3.71300516
    O     56.48193914     40.22642462     58.55677231      6.54984656
    H     59.32200407     37.35817811     59.24528739      0.76309827
    C     56.76476783     37.16935776     58.67861116      4.06606941
    H     56.99966542     36.98839868     59.72909820      0.94942642
    H     56.92960334     36.24618915     58.11748761      0.94281661
    C     55.33869263     37.58557935     58.56722808      4.03050262
    C     54.56024558     37.55242692     57.44710604      4.00549702
    H     54.82506185     37.24950673     56.45132076      0.97223985
    N     53.30177228     38.00393959     57.73247338      5.13336171
    H     52.55274324     38.09923545     57.07034408      0.79254268
    C     53.24960036     38.36378534     59.04731283      3.95266533
    C     52.20283150     38.88032390     59.80007977      4.06007220
    H     51.23986505     39.07556321     59.35318809      0.96986842
    C     52.44557311     39.14706805     61.12989643      4.04613121
    H     51.65680189     39.55213360     61.74493943      0.96279536
    C     53.69891863     38.91209203     61.70156907      4.05148363
    H     53.84842063     39.14797060     62.74341757      0.95667437
    C     54.73928825     38.39833669     60.96184947      4.04040508
    H     55.71074049     38.23529640     61.40531913      0.97993001
    C     54.52200267     38.10998854     59.61536516      4.01624607
    N     58.29887361     39.81797361     59.88352480      5.29962364
    C     58.08157349     40.97061114     60.74088467      3.95783565
    H     57.01585310     41.22727125     60.68527709      0.97138926
    C     58.85440194     42.22945930     60.31250603      3.71085443
    O     58.30174686     43.33483252     60.30559795      6.57030788
    H     59.31782034     39.62486386     59.66180536      0.70666315
    C     58.49709921     40.57982723     62.16755287      4.08424887
    H     59.56099954     40.34544990     62.13683494      0.93245876
    H     57.94908029     39.68048521     62.44732458      0.92712960
    C     58.22063204     41.68403215     63.18207258      4.07289660
    H     57.14955653     41.89064053     63.19062851      0.94606038
    H     58.72700191     42.59449512     62.85899876      0.95491361
    C     58.69270294     41.27168335     64.57457023      4.03042582
    H     59.77536623     41.11475288     64.54574071      0.90265823
    H     58.19492164     40.33701244     64.85333925      0.90141535
    N     58.36344789     42.31811725     65.53009186      5.16569241
    H     57.92787503     43.14007077     65.14066334      0.76327891
    C     58.55446011     42.24820506     66.84570717      3.75661617
    N     58.16712841     43.26706772     67.61434447      5.29922459
    H     58.30117354     43.23523152     68.61207332      0.73672030
    H     57.69144930     44.06156749     67.22281966      0.72497873
    N     59.14294976     41.19454793     67.39890567      5.32133448
    H     59.41879230     40.40406420     66.84078338      0.71617786
    H     59.25678082     41.15145339     68.39835493      0.68342742
    N     60.17033789     42.02984344     60.18205172      5.27112819
    C     61.03297227     43.02819682     59.58328964      3.96615042
    H     60.91958826     43.98082191     60.12250549      0.98682049
    C     60.61121452     43.32848007     58.10231826      3.62024537
    O     61.21619466     44.27082143     57.54772997      6.64373405
    H     60.44221486     41.06482225     59.88036036      0.71380416
    C     62.46794159     42.49917714     59.67700000      4.06372520
    H     62.53303104     41.64698452     58.99345555      0.97530830
    H     62.60917992     42.12239154     60.69223395      0.92646836
    C     63.54608870     43.52661935     59.34766927      4.07576375
    H     63.48885445     44.34570426     60.06596206      0.93648978
    H     63.33440843     43.93265720     58.35810090      0.95108221
    C     64.91981240     42.86615576     59.40146297      4.02448198
    H     65.07789231     42.47431888     60.41157656      0.89496778
    H     64.93778110     42.04246034     58.67892434      0.92905251
    N     65.95940373     43.83350147     59.09102958      5.16626308
    H     65.63641052     44.74023546     58.78785038      0.76213261
    C     67.25604570     43.53602999     59.01978429      3.75757248
    N     68.13040953     44.48671968     58.69481198      5.29661816
    H     69.11629087     44.28853923     58.63597644      0.73419547
    H     67.81635151     45.41707114     58.47639553      0.72373633
    N     67.69133137     42.32212231     59.34710140      5.32479968
    H     67.02811469     41.57919496     59.48779709      0.72001363
    H     68.66917388     42.09983963     59.24978240      0.68032761
    O     59.71225022     42.61944632     57.60300508      6.68699885
